data_TiCSPt
_audit_creation_method           'pos2cif.pl'
_cell_length_a               9.31164912707159
_cell_length_b               9.3129666556225
_cell_length_c               23.3022657397172
_cell_angle_alpha            88.7570936167497
_cell_angle_beta             91.7344551902497
_cell_angle_gamma            120.080053813783
_symmetry_space_group_H-M        'P1'
_symmetry_Int_Tables_number      '1'
_symmetry_cell_setting           'triclinic'
loop_
_symmetry_equiv_pos_as_xyz
x,y,z

loop_
_atom_site_label
_atom_site_type_symbol
_atom_site_occupancy
_atom_site_fract_x
_atom_site_fract_y
_atom_site_fract_z
_atom_site_U_iso_or_equiv
Ti1  Ti  1.0000  0.11766  0.26034  0.49753  0.0000
Ti2  Ti  1.0000  0.32866  0.04638  0.28895  0.0000
Ti3  Ti  1.0000  0.22332  0.15457  0.39320  0.0000
Ti4  Ti  1.0000  0.09925  0.27048  0.18396  0.0000
Ti5  Ti  1.0000  0.44853  0.26235  0.49856  0.0000
Ti6  Ti  1.0000  0.66145  0.04637  0.28895  0.0000
Ti7  Ti  1.0000  0.55781  0.15633  0.39371  0.0000
Ti8  Ti  1.0000  0.43275  0.27063  0.18394  0.0000
Ti9  Ti  1.0000  0.78924  0.26213  0.49852  0.0000
Ti10  Ti  1.0000  0.99508  0.04643  0.28869  0.0000
Ti11  Ti  1.0000  0.89048  0.15456  0.39318  0.0000
Ti12  Ti  1.0000  0.76595  0.27065  0.18394  0.0000
Ti13  Ti  1.0000  0.12420  0.59942  0.49605  0.0000
Ti14  Ti  1.0000  0.32853  0.37948  0.28892  0.0000
Ti15  Ti  1.0000  0.22338  0.48745  0.39262  0.0000
Ti16  Ti  1.0000  0.09931  0.60383  0.18389  0.0000
Ti17  Ti  1.0000  0.45004  0.59938  0.49599  0.0000
Ti18  Ti  1.0000  0.66151  0.37936  0.28895  0.0000
Ti19  Ti  1.0000  0.55701  0.48729  0.39354  0.0000
Ti20  Ti  1.0000  0.43249  0.60379  0.18388  0.0000
Ti21  Ti  1.0000  0.78891  0.60363  0.49632  0.0000
Ti22  Ti  1.0000  0.99462  0.37950  0.28893  0.0000
Ti23  Ti  1.0000  0.88967  0.48738  0.39360  0.0000
Ti24  Ti  1.0000  0.76601  0.60402  0.18389  0.0000
Ti25  Ti  1.0000  0.11823  0.92941  0.49792  0.0000
Ti26  Ti  1.0000  0.32823  0.71282  0.28882  0.0000
Ti27  Ti  1.0000  0.22385  0.82249  0.39257  0.0000
Ti28  Ti  1.0000  0.09944  0.93725  0.18400  0.0000
Ti29  Ti  1.0000  0.45073  0.92692  0.49596  0.0000
Ti30  Ti  1.0000  0.66150  0.71242  0.28888  0.0000
Ti31  Ti  1.0000  0.55775  0.82245  0.39254  0.0000
Ti32  Ti  1.0000  0.43264  0.93732  0.18390  0.0000
Ti33  Ti  1.0000  0.78577  0.92940  0.49791  0.0000
Ti34  Ti  1.0000  0.99458  0.71239  0.28889  0.0000
Ti35  Ti  1.0000  0.89054  0.82188  0.39273  0.0000
Ti36  Ti  1.0000  0.76578  0.93726  0.18399  0.0000
C1  C  1.0000  0.10940  0.26728  0.34106  0.0000
C2  C  1.0000  0.00493  0.04230  0.44761  0.0000
C3  C  1.0000  0.21363  0.15849  0.23406  0.0000
C4  C  1.0000  0.44317  0.26738  0.34114  0.0000
C5  C  1.0000  0.33929  0.04525  0.44862  0.0000
C6  C  1.0000  0.54709  0.15870  0.23410  0.0000
C7  C  1.0000  0.77577  0.26738  0.34115  0.0000
C8  C  1.0000  0.67369  0.04537  0.44862  0.0000
C9  C  1.0000  0.88034  0.15853  0.23406  0.0000
C10  C  1.0000  0.10883  0.60038  0.34098  0.0000
C11  C  1.0000  0.00357  0.37515  0.44856  0.0000
C12  C  1.0000  0.21371  0.49191  0.23398  0.0000
C13  C  1.0000  0.44299  0.60037  0.34098  0.0000
C14  C  1.0000  0.33912  0.37506  0.44849  0.0000
C15  C  1.0000  0.54695  0.49163  0.23405  0.0000
C16  C  1.0000  0.77588  0.60028  0.34106  0.0000
C17  C  1.0000  0.67149  0.37532  0.44903  0.0000
C18  C  1.0000  0.88018  0.49167  0.23406  0.0000
C19  C  1.0000  0.10938  0.93400  0.34112  0.0000
C20  C  1.0000  0.00240  0.70731  0.44847  0.0000
C21  C  1.0000  0.21372  0.82516  0.23402  0.0000
C22  C  1.0000  0.44298  0.93446  0.34093  0.0000
C23  C  1.0000  0.33870  0.71008  0.44677  0.0000
C24  C  1.0000  0.54697  0.82518  0.23402  0.0000
C25  C  1.0000  0.77614  0.93398  0.34112  0.0000
C26  C  1.0000  0.67262  0.70742  0.44838  0.0000
C27  C  1.0000  0.88030  0.82511  0.23404  0.0000
S1  S  1.0000  0.23172  0.14785  0.56700  0.0000
S2  S  1.0000  0.31719  0.04993  0.11457  0.0000
S3  S  1.0000  0.55255  0.12015  0.57625  0.0000
S4  S  1.0000  0.65052  0.04996  0.11457  0.0000
S5  S  1.0000  0.90115  0.14773  0.56699  0.0000
S6  S  1.0000  0.98405  0.05018  0.11448  0.0000
S7  S  1.0000  0.23393  0.48116  0.56690  0.0000
S8  S  1.0000  0.31735  0.38349  0.11455  0.0000
S9  S  1.0000  0.52370  0.49296  0.58003  0.0000
S10  S  1.0000  0.65049  0.38323  0.11461  0.0000
S11  S  1.0000  0.96012  0.49456  0.58093  0.0000
S12  S  1.0000  0.98385  0.38346  0.11455  0.0000
S13  S  1.0000  0.23783  0.82095  0.56667  0.0000
S14  S  1.0000  0.31706  0.71646  0.11452  0.0000
S15  S  1.0000  0.56805  0.82048  0.56653  0.0000
S16  S  1.0000  0.65059  0.71653  0.11449  0.0000
S17  S  1.0000  0.89966  0.81426  0.56681  0.0000
S18  S  1.0000  0.98372  0.71650  0.11450  0.0000
Pt1  Pt  1.0000  0.69289  0.39386  0.58845  0.0000
