data_HfCSRh
_audit_creation_method           'pos2cif.pl'
_cell_length_a               9.99787278301691
_cell_length_b               9.99712697170783
_cell_length_c               26.1312366108268
_cell_angle_alpha            88.4532598243322
_cell_angle_beta             92.0917052636294
_cell_angle_gamma            119.99438548989
_symmetry_space_group_H-M        'P1'
_symmetry_Int_Tables_number      '1'
_symmetry_cell_setting           'triclinic'
loop_
_symmetry_equiv_pos_as_xyz
x,y,z

loop_
_atom_site_label
_atom_site_type_symbol
_atom_site_occupancy
_atom_site_fract_x
_atom_site_fract_y
_atom_site_fract_z
_atom_site_U_iso_or_equiv
Hf1  Hf  1.0000  0.12124  0.26204  0.65155  0.0000
Hf2  Hf  1.0000  0.32769  0.04672  0.44981  0.0000
Hf3  Hf  1.0000  0.22448  0.15454  0.55033  0.0000
Hf4  Hf  1.0000  0.09727  0.27194  0.34858  0.0000
Hf5  Hf  1.0000  0.45338  0.26185  0.65133  0.0000
Hf6  Hf  1.0000  0.66092  0.04672  0.44981  0.0000
Hf7  Hf  1.0000  0.55807  0.15504  0.55044  0.0000
Hf8  Hf  1.0000  0.43065  0.27199  0.34854  0.0000
Hf9  Hf  1.0000  0.78885  0.26184  0.65133  0.0000
Hf10  Hf  1.0000  0.99421  0.04655  0.44983  0.0000
Hf11  Hf  1.0000  0.89113  0.15454  0.55033  0.0000
Hf12  Hf  1.0000  0.76393  0.27199  0.34855  0.0000
Hf13  Hf  1.0000  0.12531  0.59794  0.64965  0.0000
Hf14  Hf  1.0000  0.32768  0.37981  0.44981  0.0000
Hf15  Hf  1.0000  0.22393  0.48689  0.54982  0.0000
Hf16  Hf  1.0000  0.09723  0.60529  0.34849  0.0000
Hf17  Hf  1.0000  0.45267  0.59790  0.64967  0.0000
Hf18  Hf  1.0000  0.66088  0.37987  0.44980  0.0000
Hf19  Hf  1.0000  0.55804  0.48764  0.55044  0.0000
Hf20  Hf  1.0000  0.43065  0.60529  0.34849  0.0000
Hf21  Hf  1.0000  0.78884  0.59731  0.65132  0.0000
Hf22  Hf  1.0000  0.99403  0.37983  0.44981  0.0000
Hf23  Hf  1.0000  0.89065  0.48762  0.55044  0.0000
Hf24  Hf  1.0000  0.76393  0.60527  0.34855  0.0000
Hf25  Hf  1.0000  0.12125  0.92945  0.65156  0.0000
Hf26  Hf  1.0000  0.32755  0.71321  0.44975  0.0000
Hf27  Hf  1.0000  0.22392  0.82170  0.54982  0.0000
Hf28  Hf  1.0000  0.09726  0.93866  0.34858  0.0000
Hf29  Hf  1.0000  0.45262  0.92523  0.64965  0.0000
Hf30  Hf  1.0000  0.66092  0.71307  0.44981  0.0000
Hf31  Hf  1.0000  0.55876  0.82172  0.54982  0.0000
Hf32  Hf  1.0000  0.43065  0.93870  0.34849  0.0000
Hf33  Hf  1.0000  0.78861  0.92942  0.65156  0.0000
Hf34  Hf  1.0000  0.99404  0.71307  0.44981  0.0000
Hf35  Hf  1.0000  0.89113  0.82120  0.55032  0.0000
Hf36  Hf  1.0000  0.76402  0.93867  0.34859  0.0000
C1  C  1.0000  0.10925  0.26698  0.50019  0.0000
C2  C  1.0000  0.00640  0.04176  0.60268  0.0000
C3  C  1.0000  0.21255  0.15944  0.39787  0.0000
C4  C  1.0000  0.44271  0.26718  0.50027  0.0000
C5  C  1.0000  0.34077  0.04354  0.60287  0.0000
C6  C  1.0000  0.54572  0.15942  0.39793  0.0000
C7  C  1.0000  0.77603  0.26719  0.50027  0.0000
C8  C  1.0000  0.67382  0.04351  0.60287  0.0000
C9  C  1.0000  0.87890  0.15944  0.39788  0.0000
C10  C  1.0000  0.10899  0.60035  0.50015  0.0000
C11  C  1.0000  0.00475  0.37445  0.60286  0.0000
C12  C  1.0000  0.21235  0.49269  0.39801  0.0000
C13  C  1.0000  0.44288  0.60036  0.50016  0.0000
C14  C  1.0000  0.34073  0.37439  0.60285  0.0000
C15  C  1.0000  0.54573  0.49263  0.39793  0.0000
C16  C  1.0000  0.77604  0.60052  0.50028  0.0000
C17  C  1.0000  0.67310  0.37515  0.60270  0.0000
C18  C  1.0000  0.87890  0.49262  0.39793  0.0000
C19  C  1.0000  0.10925  0.93396  0.50021  0.0000
C20  C  1.0000  0.00472  0.70746  0.60286  0.0000
C21  C  1.0000  0.21236  0.82599  0.39801  0.0000
C22  C  1.0000  0.44288  0.93421  0.50017  0.0000
C23  C  1.0000  0.33967  0.70845  0.60170  0.0000
C24  C  1.0000  0.54564  0.82599  0.39801  0.0000
C25  C  1.0000  0.77626  0.93398  0.50021  0.0000
C26  C  1.0000  0.67378  0.70738  0.60286  0.0000
C27  C  1.0000  0.87890  0.82580  0.39787  0.0000
S1  S  1.0000  0.23942  0.15042  0.71350  0.0000
S2  S  1.0000  0.31463  0.05168  0.28674  0.0000
S3  S  1.0000  0.55812  0.12290  0.71960  0.0000
S4  S  1.0000  0.64792  0.05167  0.28674  0.0000
S5  S  1.0000  0.90326  0.15029  0.71348  0.0000
S6  S  1.0000  0.98131  0.05172  0.28681  0.0000
S7  S  1.0000  0.23786  0.48342  0.71312  0.0000
S8  S  1.0000  0.31462  0.38511  0.28674  0.0000
S9  S  1.0000  0.55810  0.49571  0.71963  0.0000
S10  S  1.0000  0.64798  0.38509  0.28662  0.0000
S11  S  1.0000  0.93131  0.49570  0.71961  0.0000
S12  S  1.0000  0.98135  0.38511  0.28675  0.0000
S13  S  1.0000  0.23787  0.81588  0.71314  0.0000
S14  S  1.0000  0.31464  0.71840  0.28678  0.0000
S15  S  1.0000  0.57017  0.81577  0.71314  0.0000
S16  S  1.0000  0.64791  0.71840  0.28674  0.0000
S17  S  1.0000  0.90334  0.81439  0.71347  0.0000
S18  S  1.0000  0.98135  0.71840  0.28674  0.0000
Rh1  Rh  1.0000  0.68386  0.37116  0.73433  0.0000
