data_ZrCOAu
_audit_creation_method           'pos2cif.pl'
_cell_length_a               9.83762209376228
_cell_length_b               9.83736880145376
_cell_length_c               21.0076929495094
_cell_angle_alpha            87.7344635140034
_cell_angle_beta             90.6503218821503
_cell_angle_gamma            120.013618115143
_symmetry_space_group_H-M        'P1'
_symmetry_Int_Tables_number      '1'
_symmetry_cell_setting           'triclinic'
loop_
_symmetry_equiv_pos_as_xyz
x,y,z

loop_
_atom_site_label
_atom_site_type_symbol
_atom_site_occupancy
_atom_site_fract_x
_atom_site_fract_y
_atom_site_fract_z
_atom_site_U_iso_or_equiv
Zr1  Zr  1.0000  0.11085  0.21839  0.39518  0.0000
Zr2  Zr  1.0000  0.22518  0.12016  0.26172  0.0000
Zr3  Zr  1.0000  0.44377  0.21822  0.39507  0.0000
Zr4  Zr  1.0000  0.55846  0.12014  0.26169  0.0000
Zr5  Zr  1.0000  0.77791  0.21836  0.39497  0.0000
Zr6  Zr  1.0000  0.89175  0.12012  0.26169  0.0000
Zr7  Zr  1.0000  0.11163  0.55220  0.39485  0.0000
Zr8  Zr  1.0000  0.22498  0.45319  0.26143  0.0000
Zr9  Zr  1.0000  0.44386  0.55220  0.39475  0.0000
Zr10  Zr  1.0000  0.55853  0.45351  0.26169  0.0000
Zr11  Zr  1.0000  0.77788  0.55239  0.39500  0.0000
Zr12  Zr  1.0000  0.89174  0.45347  0.26169  0.0000
Zr13  Zr  1.0000  0.11090  0.88508  0.39516  0.0000
Zr14  Zr  1.0000  0.22502  0.78686  0.26145  0.0000
Zr15  Zr  1.0000  0.44400  0.88452  0.39481  0.0000
Zr16  Zr  1.0000  0.55859  0.78681  0.26141  0.0000
Zr17  Zr  1.0000  0.77752  0.88508  0.39516  0.0000
Zr18  Zr  1.0000  0.89186  0.78692  0.26168  0.0000
C1  C  1.0000  0.00124  0.00267  0.32837  0.0000
C2  C  1.0000  0.33451  0.00281  0.32831  0.0000
C3  C  1.0000  0.66811  0.00278  0.32828  0.0000
C4  C  1.0000  0.00113  0.33582  0.32830  0.0000
C5  C  1.0000  0.33447  0.33582  0.32829  0.0000
C6  C  1.0000  0.66790  0.33601  0.32860  0.0000
C7  C  1.0000  0.00117  0.66947  0.32831  0.0000
C8  C  1.0000  0.33460  0.66937  0.32807  0.0000
C9  C  1.0000  0.66811  0.66946  0.32828  0.0000
O1  O  1.0000  0.22080  0.10304  0.43954  0.0000
O2  O  1.0000  0.11485  0.23545  0.21711  0.0000
O3  O  1.0000  0.55334  0.10128  0.43910  0.0000
O4  O  1.0000  0.44842  0.23563  0.21723  0.0000
O5  O  1.0000  0.88759  0.10303  0.43952  0.0000
O6  O  1.0000  0.78147  0.23562  0.21722  0.0000
O7  O  1.0000  0.22092  0.43651  0.43935  0.0000
O8  O  1.0000  0.11472  0.56876  0.21714  0.0000
O9  O  1.0000  0.55333  0.43757  0.43909  0.0000
O10  O  1.0000  0.44830  0.56876  0.21711  0.0000
O11  O  1.0000  0.88933  0.43737  0.43911  0.0000
O12  O  1.0000  0.78149  0.56872  0.21723  0.0000
O13  O  1.0000  0.22097  0.76976  0.43936  0.0000
O14  O  1.0000  0.11490  0.90225  0.21713  0.0000
O15  O  1.0000  0.55418  0.76977  0.43936  0.0000
O16  O  1.0000  0.44829  0.90233  0.21713  0.0000
O17  O  1.0000  0.88761  0.76989  0.43953  0.0000
O18  O  1.0000  0.78164  0.90224  0.21711  0.0000
Au1  Au  1.0000  0.66141  0.31440  0.54729  0.0000
