data_HfCONi
_audit_creation_method           'pos2cif.pl'
_cell_length_a               9.73673746562401
_cell_length_b               9.73726104996896
_cell_length_c               25.0220556403314
_cell_angle_alpha            88.5835118273877
_cell_angle_beta             91.9216484721401
_cell_angle_gamma            119.993495530227
_symmetry_space_group_H-M        'P1'
_symmetry_Int_Tables_number      '1'
_symmetry_cell_setting           'triclinic'
loop_
_symmetry_equiv_pos_as_xyz
x,y,z

loop_
_atom_site_label
_atom_site_type_symbol
_atom_site_occupancy
_atom_site_fract_x
_atom_site_fract_y
_atom_site_fract_z
_atom_site_U_iso_or_equiv
Hf1  Hf  1.0000  0.12139  0.26287  0.66267  0.0000
Hf2  Hf  1.0000  0.32767  0.04645  0.44607  0.0000
Hf3  Hf  1.0000  0.22411  0.15449  0.55343  0.0000
Hf4  Hf  1.0000  0.09748  0.27167  0.33706  0.0000
Hf5  Hf  1.0000  0.45169  0.26146  0.66076  0.0000
Hf6  Hf  1.0000  0.66099  0.04646  0.44607  0.0000
Hf7  Hf  1.0000  0.55777  0.15466  0.55338  0.0000
Hf8  Hf  1.0000  0.43075  0.27156  0.33708  0.0000
Hf9  Hf  1.0000  0.78937  0.26144  0.66075  0.0000
Hf10  Hf  1.0000  0.99430  0.04641  0.44596  0.0000
Hf11  Hf  1.0000  0.89128  0.15450  0.55342  0.0000
Hf12  Hf  1.0000  0.76409  0.27157  0.33708  0.0000
Hf13  Hf  1.0000  0.12152  0.59620  0.66281  0.0000
Hf14  Hf  1.0000  0.32767  0.37973  0.44606  0.0000
Hf15  Hf  1.0000  0.22444  0.48792  0.55371  0.0000
Hf16  Hf  1.0000  0.09750  0.60493  0.33713  0.0000
Hf17  Hf  1.0000  0.45462  0.59621  0.66281  0.0000
Hf18  Hf  1.0000  0.66097  0.37975  0.44596  0.0000
Hf19  Hf  1.0000  0.55777  0.48801  0.55338  0.0000
Hf20  Hf  1.0000  0.43071  0.60492  0.33713  0.0000
Hf21  Hf  1.0000  0.78942  0.59928  0.66070  0.0000
Hf22  Hf  1.0000  0.99427  0.37974  0.44606  0.0000
Hf23  Hf  1.0000  0.89114  0.48801  0.55338  0.0000
Hf24  Hf  1.0000  0.76409  0.60489  0.33707  0.0000
Hf25  Hf  1.0000  0.12141  0.92943  0.66267  0.0000
Hf26  Hf  1.0000  0.32765  0.71308  0.44617  0.0000
Hf27  Hf  1.0000  0.22444  0.82136  0.55371  0.0000
Hf28  Hf  1.0000  0.09748  0.93819  0.33706  0.0000
Hf29  Hf  1.0000  0.45467  0.92941  0.66282  0.0000
Hf30  Hf  1.0000  0.66099  0.71305  0.44607  0.0000
Hf31  Hf  1.0000  0.55786  0.82136  0.55371  0.0000
Hf32  Hf  1.0000  0.43072  0.93815  0.33714  0.0000
Hf33  Hf  1.0000  0.78792  0.92944  0.66266  0.0000
Hf34  Hf  1.0000  0.99426  0.71305  0.44606  0.0000
Hf35  Hf  1.0000  0.89128  0.82167  0.55341  0.0000
Hf36  Hf  1.0000  0.76400  0.93820  0.33707  0.0000
C1  C  1.0000  0.10951  0.26740  0.49996  0.0000
C2  C  1.0000  0.00618  0.04205  0.60759  0.0000
C3  C  1.0000  0.21243  0.15887  0.39214  0.0000
C4  C  1.0000  0.44249  0.26711  0.49966  0.0000
C5  C  1.0000  0.33978  0.04167  0.60778  0.0000
C6  C  1.0000  0.54583  0.15881  0.39205  0.0000
C7  C  1.0000  0.77617  0.26710  0.49966  0.0000
C8  C  1.0000  0.67223  0.04167  0.60778  0.0000
C9  C  1.0000  0.87934  0.15888  0.39214  0.0000
C10  C  1.0000  0.10970  0.60069  0.49997  0.0000
C11  C  1.0000  0.00666  0.37608  0.60778  0.0000
C12  C  1.0000  0.21262  0.49234  0.39204  0.0000
C13  C  1.0000  0.44262  0.60071  0.49997  0.0000
C14  C  1.0000  0.33978  0.37607  0.60778  0.0000
C15  C  1.0000  0.54585  0.49236  0.39205  0.0000
C16  C  1.0000  0.77618  0.60080  0.49966  0.0000
C17  C  1.0000  0.67280  0.37546  0.60649  0.0000
C18  C  1.0000  0.87940  0.49237  0.39205  0.0000
C19  C  1.0000  0.10951  0.93379  0.49996  0.0000
C20  C  1.0000  0.00666  0.70849  0.60777  0.0000
C21  C  1.0000  0.21262  0.82562  0.39203  0.0000
C22  C  1.0000  0.44261  0.93360  0.49997  0.0000
C23  C  1.0000  0.33960  0.70876  0.60839  0.0000
C24  C  1.0000  0.54587  0.82561  0.39203  0.0000
C25  C  1.0000  0.77590  0.93379  0.49996  0.0000
C26  C  1.0000  0.67219  0.70849  0.60778  0.0000
C27  C  1.0000  0.87935  0.82579  0.39214  0.0000
O1  O  1.0000  0.23525  0.15066  0.70024  0.0000
O2  O  1.0000  0.31687  0.05047  0.29940  0.0000
O3  O  1.0000  0.56791  0.14867  0.70405  0.0000
O4  O  1.0000  0.65042  0.05049  0.29939  0.0000
O5  O  1.0000  0.90180  0.15063  0.70024  0.0000
O6  O  1.0000  0.98358  0.05037  0.29937  0.0000
O7  O  1.0000  0.23495  0.48347  0.70060  0.0000
O8  O  1.0000  0.31687  0.38357  0.29940  0.0000
O9  O  1.0000  0.56757  0.48500  0.70411  0.0000
O10  O  1.0000  0.65026  0.38372  0.29945  0.0000
O11  O  1.0000  0.90460  0.48498  0.70412  0.0000
O12  O  1.0000  0.98349  0.38357  0.29940  0.0000
O13  O  1.0000  0.23504  0.81762  0.70062  0.0000
O14  O  1.0000  0.31692  0.71705  0.29936  0.0000
O15  O  1.0000  0.56904  0.81763  0.70062  0.0000
O16  O  1.0000  0.65042  0.71712  0.29940  0.0000
O17  O  1.0000  0.90181  0.81730  0.70023  0.0000
O18  O  1.0000  0.98348  0.71709  0.29940  0.0000
Ni1  Ni  1.0000  0.68267  0.37328  0.73188  0.0000
