data_ZrCSIr
_audit_creation_method           'pos2cif.pl'
_cell_length_a               10.1298054998221
_cell_length_b               10.129071722526
_cell_length_c               25.7113678383624
_cell_angle_alpha            88.444281868026
_cell_angle_beta             92.1417017802289
_cell_angle_gamma            120.008106891695
_symmetry_space_group_H-M        'P1'
_symmetry_Int_Tables_number      '1'
_symmetry_cell_setting           'triclinic'
loop_
_symmetry_equiv_pos_as_xyz
x,y,z

loop_
_atom_site_label
_atom_site_type_symbol
_atom_site_occupancy
_atom_site_fract_x
_atom_site_fract_y
_atom_site_fract_z
_atom_site_U_iso_or_equiv
Zr1  Zr  1.0000  0.12127  0.26248  0.65580  0.0000
Zr2  Zr  1.0000  0.32774  0.04678  0.44825  0.0000
Zr3  Zr  1.0000  0.22417  0.15453  0.55154  0.0000
Zr4  Zr  1.0000  0.09698  0.27135  0.34409  0.0000
Zr5  Zr  1.0000  0.45258  0.26187  0.65491  0.0000
Zr6  Zr  1.0000  0.66093  0.04676  0.44826  0.0000
Zr7  Zr  1.0000  0.55820  0.15532  0.55175  0.0000
Zr8  Zr  1.0000  0.43034  0.27145  0.34384  0.0000
Zr9  Zr  1.0000  0.78954  0.26192  0.65477  0.0000
Zr10  Zr  1.0000  0.99422  0.04661  0.44816  0.0000
Zr11  Zr  1.0000  0.89140  0.15450  0.55151  0.0000
Zr12  Zr  1.0000  0.76373  0.27145  0.34383  0.0000
Zr13  Zr  1.0000  0.12563  0.59850  0.65430  0.0000
Zr14  Zr  1.0000  0.32778  0.37985  0.44826  0.0000
Zr15  Zr  1.0000  0.22423  0.48739  0.55125  0.0000
Zr16  Zr  1.0000  0.09698  0.60474  0.34384  0.0000
Zr17  Zr  1.0000  0.45282  0.59824  0.65435  0.0000
Zr18  Zr  1.0000  0.66096  0.37991  0.44807  0.0000
Zr19  Zr  1.0000  0.55821  0.48782  0.55178  0.0000
Zr20  Zr  1.0000  0.43038  0.60474  0.34386  0.0000
Zr21  Zr  1.0000  0.78950  0.59886  0.65487  0.0000
Zr22  Zr  1.0000  0.99404  0.37988  0.44824  0.0000
Zr23  Zr  1.0000  0.89073  0.48779  0.55176  0.0000
Zr24  Zr  1.0000  0.76377  0.60491  0.34384  0.0000
Zr25  Zr  1.0000  0.12120  0.92997  0.65585  0.0000
Zr26  Zr  1.0000  0.32757  0.71323  0.44829  0.0000
Zr27  Zr  1.0000  0.22417  0.82180  0.55125  0.0000
Zr28  Zr  1.0000  0.09706  0.93811  0.34409  0.0000
Zr29  Zr  1.0000  0.45273  0.92566  0.65427  0.0000
Zr30  Zr  1.0000  0.66099  0.71306  0.44826  0.0000
Zr31  Zr  1.0000  0.55842  0.82176  0.55128  0.0000
Zr32  Zr  1.0000  0.43041  0.93818  0.34385  0.0000
Zr33  Zr  1.0000  0.78862  0.92993  0.65582  0.0000
Zr34  Zr  1.0000  0.99402  0.71308  0.44825  0.0000
Zr35  Zr  1.0000  0.89144  0.82184  0.55153  0.0000
Zr36  Zr  1.0000  0.76373  0.93811  0.34409  0.0000
C1  C  1.0000  0.10934  0.26713  0.50036  0.0000
C2  C  1.0000  0.00656  0.04221  0.60550  0.0000
C3  C  1.0000  0.21212  0.15896  0.39490  0.0000
C4  C  1.0000  0.44253  0.26724  0.50008  0.0000
C5  C  1.0000  0.34151  0.04448  0.60617  0.0000
C6  C  1.0000  0.54564  0.15927  0.39492  0.0000
C7  C  1.0000  0.77617  0.26725  0.50007  0.0000
C8  C  1.0000  0.67394  0.04440  0.60612  0.0000
C9  C  1.0000  0.87883  0.15895  0.39491  0.0000
C10  C  1.0000  0.10946  0.60070  0.50018  0.0000
C11  C  1.0000  0.00444  0.37487  0.60612  0.0000
C12  C  1.0000  0.21217  0.49236  0.39497  0.0000
C13  C  1.0000  0.44272  0.60068  0.50018  0.0000
C14  C  1.0000  0.34157  0.37480  0.60617  0.0000
C15  C  1.0000  0.54558  0.49214  0.39493  0.0000
C16  C  1.0000  0.77620  0.60092  0.50008  0.0000
C17  C  1.0000  0.67322  0.37554  0.60452  0.0000
C18  C  1.0000  0.87854  0.49212  0.39492  0.0000
C19  C  1.0000  0.10935  0.93411  0.50038  0.0000
C20  C  1.0000  0.00429  0.70725  0.60618  0.0000
C21  C  1.0000  0.21218  0.82562  0.39497  0.0000
C22  C  1.0000  0.44269  0.93395  0.50019  0.0000
C23  C  1.0000  0.33990  0.70884  0.60525  0.0000
C24  C  1.0000  0.54543  0.82563  0.39498  0.0000
C25  C  1.0000  0.77627  0.93410  0.50038  0.0000
C26  C  1.0000  0.67397  0.70717  0.60619  0.0000
C27  C  1.0000  0.87878  0.82557  0.39491  0.0000
S1  S  1.0000  0.24016  0.15138  0.71895  0.0000
S2  S  1.0000  0.31403  0.05057  0.28088  0.0000
S3  S  1.0000  0.55947  0.12376  0.72992  0.0000
S4  S  1.0000  0.64735  0.05056  0.28088  0.0000
S5  S  1.0000  0.90327  0.15146  0.71889  0.0000
S6  S  1.0000  0.98073  0.05070  0.28094  0.0000
S7  S  1.0000  0.23824  0.48430  0.71892  0.0000
S8  S  1.0000  0.31404  0.38417  0.28087  0.0000
S9  S  1.0000  0.55866  0.49564  0.73000  0.0000
S10  S  1.0000  0.64744  0.38405  0.28081  0.0000
S11  S  1.0000  0.93207  0.49558  0.73002  0.0000
S12  S  1.0000  0.98090  0.38415  0.28085  0.0000
S13  S  1.0000  0.23827  0.81659  0.71894  0.0000
S14  S  1.0000  0.31408  0.71738  0.28088  0.0000
S15  S  1.0000  0.57038  0.81658  0.71890  0.0000
S16  S  1.0000  0.64731  0.71740  0.28088  0.0000
S17  S  1.0000  0.90306  0.81422  0.71901  0.0000
S18  S  1.0000  0.98088  0.71740  0.28087  0.0000
Ir1  Ir  1.0000  0.68432  0.37202  0.73744  0.0000
