data_TiCSV
_audit_creation_method           'pos2cif.pl'
_cell_length_a               9.39843504137684
_cell_length_b               9.39929190726486
_cell_length_c               25.7740899406911
_cell_angle_alpha            88.2848394046106
_cell_angle_beta             92.5412561501012
_cell_angle_gamma            119.996010777804
_symmetry_space_group_H-M        'P1'
_symmetry_Int_Tables_number      '1'
_symmetry_cell_setting           'triclinic'
loop_
_symmetry_equiv_pos_as_xyz
x,y,z

loop_
_atom_site_label
_atom_site_type_symbol
_atom_site_occupancy
_atom_site_fract_x
_atom_site_fract_y
_atom_site_fract_z
_atom_site_U_iso_or_equiv
Ti1  Ti  1.0000  0.11800  0.27194  0.57432  0.0000
Ti2  Ti  1.0000  0.32046  0.05583  0.38589  0.0000
Ti3  Ti  1.0000  0.21856  0.16371  0.48004  0.0000
Ti4  Ti  1.0000  0.44663  0.27014  0.57338  0.0000
Ti5  Ti  1.0000  0.65366  0.05574  0.38593  0.0000
Ti6  Ti  1.0000  0.55297  0.16467  0.48031  0.0000
Ti7  Ti  1.0000  0.78729  0.27016  0.57339  0.0000
Ti8  Ti  1.0000  0.98696  0.05558  0.38568  0.0000
Ti9  Ti  1.0000  0.88627  0.16371  0.48005  0.0000
Ti10  Ti  1.0000  0.12406  0.60891  0.57263  0.0000
Ti11  Ti  1.0000  0.32044  0.38890  0.38591  0.0000
Ti12  Ti  1.0000  0.21874  0.49645  0.47967  0.0000
Ti13  Ti  1.0000  0.44854  0.60888  0.57255  0.0000
Ti14  Ti  1.0000  0.65362  0.38891  0.38598  0.0000
Ti15  Ti  1.0000  0.55293  0.49707  0.48030  0.0000
Ti16  Ti  1.0000  0.78728  0.61073  0.57338  0.0000
Ti17  Ti  1.0000  0.98677  0.38884  0.38592  0.0000
Ti18  Ti  1.0000  0.88541  0.49707  0.48033  0.0000
Ti19  Ti  1.0000  0.11796  0.93948  0.57433  0.0000
Ti20  Ti  1.0000  0.32030  0.72234  0.38605  0.0000
Ti21  Ti  1.0000  0.21874  0.83120  0.47966  0.0000
Ti22  Ti  1.0000  0.44848  0.93337  0.57259  0.0000
Ti23  Ti  1.0000  0.65371  0.72214  0.38595  0.0000
Ti24  Ti  1.0000  0.55350  0.83117  0.47967  0.0000
Ti25  Ti  1.0000  0.78556  0.93948  0.57431  0.0000
Ti26  Ti  1.0000  0.98678  0.72215  0.38590  0.0000
Ti27  Ti  1.0000  0.88630  0.83139  0.48005  0.0000
C1  C  1.0000  0.10295  0.27649  0.43154  0.0000
C2  C  1.0000  0.00225  0.05156  0.52833  0.0000
C3  C  1.0000  0.43647  0.27663  0.43148  0.0000
C4  C  1.0000  0.33627  0.05280  0.52886  0.0000
C5  C  1.0000  0.76954  0.27658  0.43150  0.0000
C6  C  1.0000  0.66952  0.05282  0.52885  0.0000
C7  C  1.0000  0.10251  0.60966  0.43146  0.0000
C8  C  1.0000  0.00110  0.38436  0.52888  0.0000
C9  C  1.0000  0.43651  0.60967  0.43145  0.0000
C10  C  1.0000  0.33629  0.38431  0.52884  0.0000
C11  C  1.0000  0.76956  0.60970  0.43150  0.0000
C12  C  1.0000  0.66906  0.38487  0.52963  0.0000
C13  C  1.0000  0.10292  0.94322  0.43154  0.0000
C14  C  1.0000  0.00112  0.71759  0.52888  0.0000
C15  C  1.0000  0.43649  0.94368  0.43144  0.0000
C16  C  1.0000  0.33548  0.71832  0.52753  0.0000
C17  C  1.0000  0.76971  0.94324  0.43156  0.0000
C18  C  1.0000  0.66954  0.71756  0.52885  0.0000
S1  S  1.0000  0.23500  0.15918  0.63578  0.0000
S2  S  1.0000  0.20275  0.16873  0.32398  0.0000
S3  S  1.0000  0.56001  0.14014  0.63931  0.0000
S4  S  1.0000  0.53606  0.16875  0.32385  0.0000
S5  S  1.0000  0.90324  0.15920  0.63577  0.0000
S6  S  1.0000  0.86907  0.16842  0.32400  0.0000
S7  S  1.0000  0.23693  0.49455  0.63550  0.0000
S8  S  1.0000  0.20259  0.50177  0.32394  0.0000
S9  S  1.0000  0.56000  0.50277  0.63933  0.0000
S10  S  1.0000  0.53617  0.50169  0.32383  0.0000
S11  S  1.0000  0.92268  0.50280  0.63934  0.0000
S12  S  1.0000  0.86878  0.50148  0.32386  0.0000
S13  S  1.0000  0.23680  0.82571  0.63559  0.0000
S14  S  1.0000  0.20249  0.83512  0.32395  0.0000
S15  S  1.0000  0.56792  0.82565  0.63548  0.0000
S16  S  1.0000  0.53580  0.83499  0.32396  0.0000
S17  S  1.0000  0.90307  0.82722  0.63579  0.0000
S18  S  1.0000  0.86902  0.83498  0.32402  0.0000
V1  V  1.0000  0.68428  0.38101  0.67102  0.0000
