data_ZrCOCu
_audit_creation_method           'pos2cif.pl'
_cell_length_a               9.8591658320059
_cell_length_b               9.85770229546774
_cell_length_c               25.1394837269651
_cell_angle_alpha            88.5281221387368
_cell_angle_beta             91.9994417703043
_cell_angle_gamma            119.999324729473
_symmetry_space_group_H-M        'P1'
_symmetry_Int_Tables_number      '1'
_symmetry_cell_setting           'triclinic'
loop_
_symmetry_equiv_pos_as_xyz
x,y,z

loop_
_atom_site_label
_atom_site_type_symbol
_atom_site_occupancy
_atom_site_fract_x
_atom_site_fract_y
_atom_site_fract_z
_atom_site_U_iso_or_equiv
Zr1  Zr  1.0000  0.12163  0.26199  0.66447  0.0000
Zr2  Zr  1.0000  0.32750  0.04644  0.44575  0.0000
Zr3  Zr  1.0000  0.22371  0.15418  0.55381  0.0000
Zr4  Zr  1.0000  0.09691  0.27208  0.33575  0.0000
Zr5  Zr  1.0000  0.45055  0.26049  0.66120  0.0000
Zr6  Zr  1.0000  0.66081  0.04643  0.44576  0.0000
Zr7  Zr  1.0000  0.55773  0.15425  0.55386  0.0000
Zr8  Zr  1.0000  0.43027  0.27202  0.33579  0.0000
Zr9  Zr  1.0000  0.79043  0.26037  0.66123  0.0000
Zr10  Zr  1.0000  0.99410  0.04643  0.44555  0.0000
Zr11  Zr  1.0000  0.89161  0.15414  0.55384  0.0000
Zr12  Zr  1.0000  0.76348  0.27203  0.33579  0.0000
Zr13  Zr  1.0000  0.12234  0.59600  0.66482  0.0000
Zr14  Zr  1.0000  0.32752  0.37977  0.44574  0.0000
Zr15  Zr  1.0000  0.22470  0.48818  0.55427  0.0000
Zr16  Zr  1.0000  0.09691  0.60533  0.33579  0.0000
Zr17  Zr  1.0000  0.45489  0.59604  0.66484  0.0000
Zr18  Zr  1.0000  0.66081  0.37975  0.44573  0.0000
Zr19  Zr  1.0000  0.55774  0.48807  0.55383  0.0000
Zr20  Zr  1.0000  0.43019  0.60533  0.33579  0.0000
Zr21  Zr  1.0000  0.79058  0.60063  0.66117  0.0000
Zr22  Zr  1.0000  0.99413  0.37976  0.44576  0.0000
Zr23  Zr  1.0000  0.89155  0.48803  0.55386  0.0000
Zr24  Zr  1.0000  0.76350  0.60525  0.33579  0.0000
Zr25  Zr  1.0000  0.12186  0.92934  0.66451  0.0000
Zr26  Zr  1.0000  0.32747  0.71308  0.44584  0.0000
Zr27  Zr  1.0000  0.22474  0.82111  0.55427  0.0000
Zr28  Zr  1.0000  0.09694  0.93860  0.33575  0.0000
Zr29  Zr  1.0000  0.45502  0.92873  0.66487  0.0000
Zr30  Zr  1.0000  0.66081  0.71305  0.44574  0.0000
Zr31  Zr  1.0000  0.55761  0.82114  0.55426  0.0000
Zr32  Zr  1.0000  0.43018  0.93860  0.33578  0.0000
Zr33  Zr  1.0000  0.78892  0.92936  0.66448  0.0000
Zr34  Zr  1.0000  0.99414  0.71307  0.44576  0.0000
Zr35  Zr  1.0000  0.89162  0.82210  0.55381  0.0000
Zr36  Zr  1.0000  0.76339  0.93860  0.33574  0.0000
C1  C  1.0000  0.10959  0.26753  0.50034  0.0000
C2  C  1.0000  0.00653  0.04191  0.60886  0.0000
C3  C  1.0000  0.21219  0.15907  0.39149  0.0000
C4  C  1.0000  0.44261  0.26712  0.49994  0.0000
C5  C  1.0000  0.34040  0.04187  0.60924  0.0000
C6  C  1.0000  0.54554  0.15897  0.39134  0.0000
C7  C  1.0000  0.77612  0.26711  0.49995  0.0000
C8  C  1.0000  0.67262  0.04185  0.60925  0.0000
C9  C  1.0000  0.87902  0.15906  0.39149  0.0000
C10  C  1.0000  0.10976  0.60066  0.50033  0.0000
C11  C  1.0000  0.00653  0.37571  0.60924  0.0000
C12  C  1.0000  0.21234  0.49256  0.39138  0.0000
C13  C  1.0000  0.44257  0.60068  0.50034  0.0000
C14  C  1.0000  0.34038  0.37575  0.60922  0.0000
C15  C  1.0000  0.54554  0.49253  0.39134  0.0000
C16  C  1.0000  0.77612  0.60065  0.49993  0.0000
C17  C  1.0000  0.67316  0.37530  0.60832  0.0000
C18  C  1.0000  0.87907  0.49251  0.39134  0.0000
C19  C  1.0000  0.10958  0.93366  0.50033  0.0000
C20  C  1.0000  0.00657  0.70803  0.60924  0.0000
C21  C  1.0000  0.21233  0.82575  0.39138  0.0000
C22  C  1.0000  0.44258  0.93349  0.50034  0.0000
C23  C  1.0000  0.33992  0.70850  0.61028  0.0000
C24  C  1.0000  0.54553  0.82575  0.39138  0.0000
C25  C  1.0000  0.77572  0.93366  0.50034  0.0000
C26  C  1.0000  0.67264  0.70803  0.60922  0.0000
C27  C  1.0000  0.87903  0.82591  0.39149  0.0000
O1  O  1.0000  0.23614  0.15052  0.70187  0.0000
O2  O  1.0000  0.31612  0.05075  0.29841  0.0000
O3  O  1.0000  0.57139  0.15412  0.70595  0.0000
O4  O  1.0000  0.64981  0.05079  0.29841  0.0000
O5  O  1.0000  0.90234  0.15048  0.70187  0.0000
O6  O  1.0000  0.98297  0.05074  0.29843  0.0000
O7  O  1.0000  0.23576  0.48347  0.70242  0.0000
O8  O  1.0000  0.31610  0.38382  0.29841  0.0000
O9  O  1.0000  0.57105  0.48210  0.70595  0.0000
O10  O  1.0000  0.64962  0.38406  0.29843  0.0000
O11  O  1.0000  0.89950  0.48205  0.70597  0.0000
O12  O  1.0000  0.98291  0.38385  0.29841  0.0000
O13  O  1.0000  0.23588  0.81716  0.70245  0.0000
O14  O  1.0000  0.31629  0.71738  0.29836  0.0000
O15  O  1.0000  0.56943  0.81717  0.70243  0.0000
O16  O  1.0000  0.64982  0.71754  0.29841  0.0000
O17  O  1.0000  0.90242  0.81681  0.70187  0.0000
O18  O  1.0000  0.98293  0.71753  0.29842  0.0000
Cu1  Cu  1.0000  0.68374  0.37284  0.74045  0.0000
