data_ZrCSY
_audit_creation_method           'pos2cif.pl'
_cell_length_a               10.3478649667066
_cell_length_b               10.348186449733
_cell_length_c               18.9900274158323
_cell_angle_alpha            87.38719806638
_cell_angle_beta             90.7553427027449
_cell_angle_gamma            120.00785409794
_symmetry_space_group_H-M        'P1'
_symmetry_Int_Tables_number      '1'
_symmetry_cell_setting           'triclinic'
loop_
_symmetry_equiv_pos_as_xyz
x,y,z

loop_
_atom_site_label
_atom_site_type_symbol
_atom_site_occupancy
_atom_site_fract_x
_atom_site_fract_y
_atom_site_fract_z
_atom_site_U_iso_or_equiv
Zr1  Zr  1.0000  0.11079  0.21858  0.39805  0.0000
Zr2  Zr  1.0000  0.22412  0.12004  0.25729  0.0000
Zr3  Zr  1.0000  0.43985  0.21649  0.39488  0.0000
Zr4  Zr  1.0000  0.55821  0.11995  0.25740  0.0000
Zr5  Zr  1.0000  0.77960  0.21634  0.39491  0.0000
Zr6  Zr  1.0000  0.89234  0.11996  0.25725  0.0000
Zr7  Zr  1.0000  0.11573  0.55436  0.39608  0.0000
Zr8  Zr  1.0000  0.22500  0.45346  0.25727  0.0000
Zr9  Zr  1.0000  0.44153  0.55433  0.39609  0.0000
Zr10  Zr  1.0000  0.55831  0.45415  0.25739  0.0000
Zr11  Zr  1.0000  0.77956  0.55618  0.39488  0.0000
Zr12  Zr  1.0000  0.89238  0.45417  0.25736  0.0000
Zr13  Zr  1.0000  0.11075  0.88518  0.39806  0.0000
Zr14  Zr  1.0000  0.22498  0.78735  0.25730  0.0000
Zr15  Zr  1.0000  0.44145  0.88005  0.39616  0.0000
Zr16  Zr  1.0000  0.55890  0.78736  0.25729  0.0000
Zr17  Zr  1.0000  0.77733  0.88504  0.39802  0.0000
Zr18  Zr  1.0000  0.89251  0.78837  0.25731  0.0000
C1  C  1.0000  0.00125  0.00265  0.32812  0.0000
C2  C  1.0000  0.33547  0.00418  0.32907  0.0000
C3  C  1.0000  0.66860  0.00415  0.32907  0.0000
C4  C  1.0000  -0.00034  0.33521  0.32907  0.0000
C5  C  1.0000  0.33540  0.33523  0.32907  0.0000
C6  C  1.0000  0.66786  0.33578  0.33017  0.0000
C7  C  1.0000  -0.00038  0.66831  0.32905  0.0000
C8  C  1.0000  0.33458  0.66939  0.32845  0.0000
C9  C  1.0000  0.66849  0.66831  0.32906  0.0000
S1  S  1.0000  0.22098  0.09972  0.48169  0.0000
S2  S  1.0000  0.11641  0.24014  0.17483  0.0000
S3  S  1.0000  0.54875  0.09001  0.48532  0.0000
S4  S  1.0000  0.44951  0.23951  0.17501  0.0000
S5  S  1.0000  0.88583  0.09959  0.48170  0.0000
S6  S  1.0000  0.78265  0.23949  0.17501  0.0000
S7  S  1.0000  0.22051  0.43390  0.48127  0.0000
S8  S  1.0000  0.11620  0.57284  0.17522  0.0000
S9  S  1.0000  0.54876  0.43642  0.48530  0.0000
S10  S  1.0000  0.44935  0.57285  0.17521  0.0000
S11  S  1.0000  0.89512  0.43632  0.48528  0.0000
S12  S  1.0000  0.78263  0.57268  0.17500  0.0000
S13  S  1.0000  0.22048  0.76497  0.48129  0.0000
S14  S  1.0000  0.11630  0.90579  0.17482  0.0000
S15  S  1.0000  0.55166  0.76491  0.48121  0.0000
S16  S  1.0000  0.44933  0.90602  0.17522  0.0000
S17  S  1.0000  0.88589  0.76451  0.48164  0.0000
S18  S  1.0000  0.78206  0.90573  0.17482  0.0000
Y1  Y  1.0000  0.66257  0.31425  0.55593  0.0000
