data_HfCSPt
_audit_creation_method           'pos2cif.pl'
_cell_length_a               10.2340989055849
_cell_length_b               10.2322704157952
_cell_length_c               19.4123437368968
_cell_angle_alpha            87.4585863399572
_cell_angle_beta             90.7603391510265
_cell_angle_gamma            119.982090612888
_symmetry_space_group_H-M        'P1'
_symmetry_Int_Tables_number      '1'
_symmetry_cell_setting           'triclinic'
loop_
_symmetry_equiv_pos_as_xyz
x,y,z

loop_
_atom_site_label
_atom_site_type_symbol
_atom_site_occupancy
_atom_site_fract_x
_atom_site_fract_y
_atom_site_fract_z
_atom_site_U_iso_or_equiv
Hf1  Hf  1.0000  0.11054  0.21805  0.39655  0.0000
Hf2  Hf  1.0000  0.22516  0.12018  0.26097  0.0000
Hf3  Hf  1.0000  0.44040  0.21657  0.39652  0.0000
Hf4  Hf  1.0000  0.55900  0.12131  0.26149  0.0000
Hf5  Hf  1.0000  0.77925  0.21658  0.39649  0.0000
Hf6  Hf  1.0000  0.89172  0.12019  0.26096  0.0000
Hf7  Hf  1.0000  0.11449  0.55382  0.39407  0.0000
Hf8  Hf  1.0000  0.22463  0.45266  0.25999  0.0000
Hf9  Hf  1.0000  0.44226  0.55382  0.39409  0.0000
Hf10  Hf  1.0000  0.55899  0.45285  0.26146  0.0000
Hf11  Hf  1.0000  0.77925  0.55538  0.39651  0.0000
Hf12  Hf  1.0000  0.89054  0.45283  0.26147  0.0000
Hf13  Hf  1.0000  0.11055  0.88525  0.39656  0.0000
Hf14  Hf  1.0000  0.22464  0.78737  0.25999  0.0000
Hf15  Hf  1.0000  0.44229  0.88162  0.39409  0.0000
Hf16  Hf  1.0000  0.55937  0.78738  0.25997  0.0000
Hf17  Hf  1.0000  0.77769  0.88521  0.39654  0.0000
Hf18  Hf  1.0000  0.89172  0.78676  0.26097  0.0000
C1  C  1.0000  0.00121  0.00257  0.32924  0.0000
C2  C  1.0000  0.33540  0.00466  0.32969  0.0000
C3  C  1.0000  0.66910  0.00460  0.32966  0.0000
C4  C  1.0000  -0.00081  0.33463  0.32965  0.0000
C5  C  1.0000  0.33537  0.33466  0.32966  0.0000
C6  C  1.0000  0.66796  0.33591  0.32980  0.0000
C7  C  1.0000  -0.00083  0.66841  0.32965  0.0000
C8  C  1.0000  0.33454  0.66934  0.32794  0.0000
C9  C  1.0000  0.66904  0.66839  0.32965  0.0000
S1  S  1.0000  0.22046  0.09983  0.47775  0.0000
S2  S  1.0000  0.11574  0.23861  0.18058  0.0000
S3  S  1.0000  0.53934  0.07060  0.48474  0.0000
S4  S  1.0000  0.44951  0.23901  0.18079  0.0000
S5  S  1.0000  0.88631  0.09979  0.47773  0.0000
S6  S  1.0000  0.78239  0.23901  0.18078  0.0000
S7  S  1.0000  0.21998  0.43313  0.47648  0.0000
S8  S  1.0000  0.11511  0.57182  0.18088  0.0000
S9  S  1.0000  0.53908  0.44641  0.48467  0.0000
S10  S  1.0000  0.44953  0.57179  0.18087  0.0000
S11  S  1.0000  0.91471  0.44633  0.48468  0.0000
S12  S  1.0000  0.78238  0.57185  0.18080  0.0000
S13  S  1.0000  0.22005  0.76617  0.47645  0.0000
S14  S  1.0000  0.11572  0.90566  0.18058  0.0000
S15  S  1.0000  0.55301  0.76616  0.47649  0.0000
S16  S  1.0000  0.44961  0.90634  0.18089  0.0000
S17  S  1.0000  0.88630  0.76573  0.47772  0.0000
S18  S  1.0000  0.78280  0.90565  0.18058  0.0000
Pt1  Pt  1.0000  0.66379  0.31931  0.50280  0.0000
