data_TiCONi
_audit_creation_method           'pos2cif.pl'
_cell_length_a               9.16836054260011
_cell_length_b               9.16872958059222
_cell_length_c               27.0868374665885
_cell_angle_alpha            88.3697550878675
_cell_angle_beta             92.3827664685878
_cell_angle_gamma            120.013665240964
_symmetry_space_group_H-M        'P1'
_symmetry_Int_Tables_number      '1'
_symmetry_cell_setting           'triclinic'
loop_
_symmetry_equiv_pos_as_xyz
x,y,z

loop_
_atom_site_label
_atom_site_type_symbol
_atom_site_occupancy
_atom_site_fract_x
_atom_site_fract_y
_atom_site_fract_z
_atom_site_U_iso_or_equiv
Ti1  Ti  1.0000  0.11875  0.27288  0.57488  0.0000
Ti2  Ti  1.0000  0.32040  0.05605  0.38610  0.0000
Ti3  Ti  1.0000  0.21872  0.16380  0.48035  0.0000
Ti4  Ti  1.0000  0.44637  0.26971  0.57317  0.0000
Ti5  Ti  1.0000  0.65370  0.05605  0.38609  0.0000
Ti6  Ti  1.0000  0.55269  0.16424  0.48045  0.0000
Ti7  Ti  1.0000  0.78758  0.26968  0.57318  0.0000
Ti8  Ti  1.0000  0.98693  0.05587  0.38592  0.0000
Ti9  Ti  1.0000  0.88614  0.16380  0.48035  0.0000
Ti10  Ti  1.0000  0.11867  0.60575  0.57494  0.0000
Ti11  Ti  1.0000  0.32041  0.38912  0.38610  0.0000
Ti12  Ti  1.0000  0.21926  0.49740  0.48050  0.0000
Ti13  Ti  1.0000  0.45169  0.60575  0.57495  0.0000
Ti14  Ti  1.0000  0.65361  0.38919  0.38604  0.0000
Ti15  Ti  1.0000  0.55269  0.49726  0.48045  0.0000
Ti16  Ti  1.0000  0.78749  0.61084  0.57318  0.0000
Ti17  Ti  1.0000  0.98674  0.38910  0.38608  0.0000
Ti18  Ti  1.0000  0.88570  0.49725  0.48045  0.0000
Ti19  Ti  1.0000  0.11873  0.93867  0.57489  0.0000
Ti20  Ti  1.0000  0.32028  0.72252  0.38606  0.0000
Ti21  Ti  1.0000  0.21926  0.83070  0.48050  0.0000
Ti22  Ti  1.0000  0.45166  0.93872  0.57494  0.0000
Ti23  Ti  1.0000  0.65371  0.72240  0.38610  0.0000
Ti24  Ti  1.0000  0.55257  0.83069  0.48050  0.0000
Ti25  Ti  1.0000  0.78458  0.93866  0.57489  0.0000
Ti26  Ti  1.0000  0.98673  0.72238  0.38609  0.0000
Ti27  Ti  1.0000  0.88615  0.83120  0.48035  0.0000
C1  C  1.0000  0.10335  0.27692  0.43444  0.0000
C2  C  1.0000  0.00205  0.05156  0.52620  0.0000
C3  C  1.0000  0.43640  0.27657  0.43419  0.0000
C4  C  1.0000  0.33560  0.05141  0.52666  0.0000
C5  C  1.0000  0.76988  0.27656  0.43419  0.0000
C6  C  1.0000  0.66849  0.05144  0.52667  0.0000
C7  C  1.0000  0.10342  0.61004  0.43460  0.0000
C8  C  1.0000  0.00219  0.38515  0.52667  0.0000
C9  C  1.0000  0.43644  0.61006  0.43460  0.0000
C10  C  1.0000  0.33560  0.38514  0.52666  0.0000
C11  C  1.0000  0.76989  0.61005  0.43419  0.0000
C12  C  1.0000  0.66873  0.38489  0.52617  0.0000
C13  C  1.0000  0.10335  0.94313  0.43444  0.0000
C14  C  1.0000  0.00221  0.71803  0.52666  0.0000
C15  C  1.0000  0.43645  0.94307  0.43460  0.0000
C16  C  1.0000  0.33549  0.71818  0.52717  0.0000
C17  C  1.0000  0.76958  0.94315  0.43445  0.0000
C18  C  1.0000  0.66851  0.71805  0.52667  0.0000
O1  O  1.0000  0.23261  0.15978  0.60841  0.0000
O2  O  1.0000  0.20523  0.16783  0.35268  0.0000
O3  O  1.0000  0.56363  0.15334  0.61225  0.0000
O4  O  1.0000  0.53864  0.16758  0.35261  0.0000
O5  O  1.0000  0.90028  0.15979  0.60843  0.0000
O6  O  1.0000  0.87235  0.16783  0.35267  0.0000
O7  O  1.0000  0.23261  0.49208  0.60845  0.0000
O8  O  1.0000  0.20563  0.50151  0.35267  0.0000
O9  O  1.0000  0.56367  0.49670  0.61222  0.0000
O10  O  1.0000  0.53870  0.50151  0.35262  0.0000
O11  O  1.0000  0.90694  0.49672  0.61226  0.0000
O12  O  1.0000  0.87254  0.50151  0.35261  0.0000
O13  O  1.0000  0.23255  0.82747  0.60846  0.0000
O14  O  1.0000  0.20562  0.83456  0.35268  0.0000
O15  O  1.0000  0.56802  0.82748  0.60846  0.0000
O16  O  1.0000  0.53869  0.83457  0.35267  0.0000
O17  O  1.0000  0.90028  0.82743  0.60842  0.0000
O18  O  1.0000  0.87236  0.83501  0.35268  0.0000
Ni1  Ni  1.0000  0.68068  0.38141  0.63665  0.0000
