data_HfCORh
_audit_creation_method           'pos2cif.pl'
_cell_length_a               9.77278818220804
_cell_length_b               9.77319021161897
_cell_length_c               23.8471632016099
_cell_angle_alpha            88.0740782355676
_cell_angle_beta             92.8548079453782
_cell_angle_gamma            120.005390843016
_symmetry_space_group_H-M        'P1'
_symmetry_Int_Tables_number      '1'
_symmetry_cell_setting           'triclinic'
loop_
_symmetry_equiv_pos_as_xyz
x,y,z

loop_
_atom_site_label
_atom_site_type_symbol
_atom_site_occupancy
_atom_site_fract_x
_atom_site_fract_y
_atom_site_fract_z
_atom_site_U_iso_or_equiv
Hf1  Hf  1.0000  0.12047  0.27216  0.59424  0.0000
Hf2  Hf  1.0000  0.31823  0.05630  0.36554  0.0000
Hf3  Hf  1.0000  0.21899  0.16398  0.47977  0.0000
Hf4  Hf  1.0000  0.45215  0.27140  0.59288  0.0000
Hf5  Hf  1.0000  0.65163  0.05630  0.36553  0.0000
Hf6  Hf  1.0000  0.55245  0.16387  0.47963  0.0000
Hf7  Hf  1.0000  0.78770  0.27151  0.59288  0.0000
Hf8  Hf  1.0000  0.98485  0.05613  0.36558  0.0000
Hf9  Hf  1.0000  0.88609  0.16399  0.47977  0.0000
Hf10  Hf  1.0000  0.12205  0.60625  0.59365  0.0000
Hf11  Hf  1.0000  0.31822  0.38934  0.36554  0.0000
Hf12  Hf  1.0000  0.21897  0.49690  0.47957  0.0000
Hf13  Hf  1.0000  0.45290  0.60626  0.59364  0.0000
Hf14  Hf  1.0000  0.65151  0.38946  0.36557  0.0000
Hf15  Hf  1.0000  0.55246  0.49756  0.47963  0.0000
Hf16  Hf  1.0000  0.78760  0.60662  0.59291  0.0000
Hf17  Hf  1.0000  0.98467  0.38933  0.36554  0.0000
Hf18  Hf  1.0000  0.88613  0.49756  0.47962  0.0000
Hf19  Hf  1.0000  0.12045  0.93863  0.59423  0.0000
Hf20  Hf  1.0000  0.31817  0.72279  0.36556  0.0000
Hf21  Hf  1.0000  0.21895  0.83107  0.47957  0.0000
Hf22  Hf  1.0000  0.45285  0.93702  0.59362  0.0000
Hf23  Hf  1.0000  0.65163  0.72275  0.36553  0.0000
Hf24  Hf  1.0000  0.55319  0.83108  0.47956  0.0000
Hf25  Hf  1.0000  0.78699  0.93866  0.59423  0.0000
Hf26  Hf  1.0000  0.98467  0.72274  0.36554  0.0000
Hf27  Hf  1.0000  0.88607  0.83103  0.47978  0.0000
C1  C  1.0000  0.10214  0.27681  0.42333  0.0000
C2  C  1.0000  0.00309  0.05145  0.53645  0.0000
C3  C  1.0000  0.43550  0.27680  0.42320  0.0000
C4  C  1.0000  0.33670  0.05152  0.53657  0.0000
C5  C  1.0000  0.76875  0.27682  0.42320  0.0000
C6  C  1.0000  0.66957  0.05153  0.53658  0.0000
C7  C  1.0000  0.10225  0.61014  0.42347  0.0000
C8  C  1.0000  0.00294  0.38489  0.53657  0.0000
C9  C  1.0000  0.43542  0.61014  0.42347  0.0000
C10  C  1.0000  0.33671  0.38492  0.53657  0.0000
C11  C  1.0000  0.76876  0.61005  0.42320  0.0000
C12  C  1.0000  0.66973  0.38476  0.53636  0.0000
C13  C  1.0000  0.10216  0.94339  0.42333  0.0000
C14  C  1.0000  0.00295  0.71784  0.53657  0.0000
C15  C  1.0000  0.43543  0.94332  0.42347  0.0000
C16  C  1.0000  0.33644  0.71809  0.53658  0.0000
C17  C  1.0000  0.76870  0.94339  0.42333  0.0000
C18  C  1.0000  0.66961  0.71782  0.53658  0.0000
O1  O  1.0000  0.23612  0.16006  0.63363  0.0000
O2  O  1.0000  0.20280  0.16822  0.32625  0.0000
O3  O  1.0000  0.56501  0.15112  0.63691  0.0000
O4  O  1.0000  0.53607  0.16798  0.32618  0.0000
O5  O  1.0000  0.90221  0.16008  0.63364  0.0000
O6  O  1.0000  0.86961  0.16822  0.32625  0.0000
O7  O  1.0000  0.23569  0.49308  0.63353  0.0000
O8  O  1.0000  0.20298  0.50177  0.32628  0.0000
O9  O  1.0000  0.56490  0.49724  0.63687  0.0000
O10  O  1.0000  0.53606  0.50180  0.32617  0.0000
O11  O  1.0000  0.91166  0.49757  0.63681  0.0000
O12  O  1.0000  0.86987  0.50177  0.32618  0.0000
O13  O  1.0000  0.23569  0.82660  0.63353  0.0000
O14  O  1.0000  0.20298  0.83487  0.32628  0.0000
O15  O  1.0000  0.56920  0.82661  0.63354  0.0000
O16  O  1.0000  0.53608  0.83487  0.32628  0.0000
O17  O  1.0000  0.90218  0.82606  0.63365  0.0000
O18  O  1.0000  0.86961  0.83505  0.32625  0.0000
Rh1  Rh  1.0000  0.68422  0.37986  0.67845  0.0000
