data_TiCOZr
_audit_creation_method           'pos2cif.pl'
_cell_length_a               9.06022900646054
_cell_length_b               9.06057141695115
_cell_length_c               24.7562696742973
_cell_angle_alpha            88.2380721944564
_cell_angle_beta             90.5247320491099
_cell_angle_gamma            120.008161427417
_symmetry_space_group_H-M        'P1'
_symmetry_Int_Tables_number      '1'
_symmetry_cell_setting           'triclinic'
loop_
_symmetry_equiv_pos_as_xyz
x,y,z

loop_
_atom_site_label
_atom_site_type_symbol
_atom_site_occupancy
_atom_site_fract_x
_atom_site_fract_y
_atom_site_fract_z
_atom_site_U_iso_or_equiv
Ti1  Ti  1.0000  0.11071  0.21891  0.38257  0.0000
Ti2  Ti  1.0000  0.22351  0.11816  0.27593  0.0000
Ti3  Ti  1.0000  0.43609  0.21614  0.37527  0.0000
Ti4  Ti  1.0000  0.55690  0.11651  0.27531  0.0000
Ti5  Ti  1.0000  0.78218  0.21610  0.37528  0.0000
Ti6  Ti  1.0000  0.89193  0.11812  0.27593  0.0000
Ti7  Ti  1.0000  0.11650  0.55579  0.38252  0.0000
Ti8  Ti  1.0000  0.22472  0.45206  0.27893  0.0000
Ti9  Ti  1.0000  0.44181  0.55582  0.38254  0.0000
Ti10  Ti  1.0000  0.55682  0.45326  0.27531  0.0000
Ti11  Ti  1.0000  0.78208  0.56207  0.37528  0.0000
Ti12  Ti  1.0000  0.89365  0.45325  0.27530  0.0000
Ti13  Ti  1.0000  0.11058  0.88686  0.38259  0.0000
Ti14  Ti  1.0000  0.22468  0.78508  0.27894  0.0000
Ti15  Ti  1.0000  0.44170  0.88098  0.38251  0.0000
Ti16  Ti  1.0000  0.55778  0.78509  0.27893  0.0000
Ti17  Ti  1.0000  0.77868  0.88682  0.38257  0.0000
Ti18  Ti  1.0000  0.89187  0.78647  0.27596  0.0000
C1  C  1.0000  0.00117  0.00248  0.32976  0.0000
C2  C  1.0000  0.33475  0.00215  0.32969  0.0000
C3  C  1.0000  0.66725  0.00215  0.32968  0.0000
C4  C  1.0000  0.00156  0.33645  0.32969  0.0000
C5  C  1.0000  0.33477  0.33644  0.32969  0.0000
C6  C  1.0000  0.66782  0.33576  0.32992  0.0000
C7  C  1.0000  0.00152  0.66890  0.32970  0.0000
C8  C  1.0000  0.33453  0.66904  0.33137  0.0000
C9  C  1.0000  0.66722  0.66889  0.32970  0.0000
O1  O  1.0000  0.22376  0.10625  0.42026  0.0000
O2  O  1.0000  0.11432  0.23305  0.23914  0.0000
O3  O  1.0000  0.55612  0.10720  0.43077  0.0000
O4  O  1.0000  0.44827  0.23367  0.23865  0.0000
O5  O  1.0000  0.88683  0.10624  0.42023  0.0000
O6  O  1.0000  0.78097  0.23367  0.23865  0.0000
O7  O  1.0000  0.22053  0.43656  0.42162  0.0000
O8  O  1.0000  0.11465  0.56679  0.23953  0.0000
O9  O  1.0000  0.55603  0.43559  0.43080  0.0000
O10  O  1.0000  0.44770  0.56678  0.23953  0.0000
O11  O  1.0000  0.88462  0.43564  0.43081  0.0000
O12  O  1.0000  0.78095  0.56633  0.23866  0.0000
O13  O  1.0000  0.22051  0.77241  0.42164  0.0000
O14  O  1.0000  0.11428  0.90022  0.23914  0.0000
O15  O  1.0000  0.55636  0.77240  0.42162  0.0000
O16  O  1.0000  0.44769  0.89982  0.23953  0.0000
O17  O  1.0000  0.88673  0.76918  0.42025  0.0000
O18  O  1.0000  0.78152  0.90022  0.23914  0.0000
Zr1  Zr  1.0000  0.66467  0.32242  0.46902  0.0000
