data_TiCSCo
_audit_creation_method           'pos2cif.pl'
_cell_length_a               9.52824534934418
_cell_length_b               9.528140042456
_cell_length_c               22.3911968914175
_cell_angle_alpha            87.9234292798402
_cell_angle_beta             90.6112446935506
_cell_angle_gamma            120.015827173128
_symmetry_space_group_H-M        'P1'
_symmetry_Int_Tables_number      '1'
_symmetry_cell_setting           'triclinic'
loop_
_symmetry_equiv_pos_as_xyz
x,y,z

loop_
_atom_site_label
_atom_site_type_symbol
_atom_site_occupancy
_atom_site_fract_x
_atom_site_fract_y
_atom_site_fract_z
_atom_site_U_iso_or_equiv
Ti1  Ti  1.0000  0.11081  0.21906  0.38335  0.0000
Ti2  Ti  1.0000  0.22491  0.11903  0.27513  0.0000
Ti3  Ti  1.0000  0.44160  0.21812  0.38364  0.0000
Ti4  Ti  1.0000  0.55835  0.11951  0.27591  0.0000
Ti5  Ti  1.0000  0.77917  0.21806  0.38363  0.0000
Ti6  Ti  1.0000  0.89124  0.11900  0.27519  0.0000
Ti7  Ti  1.0000  0.11477  0.55476  0.38262  0.0000
Ti8  Ti  1.0000  0.22453  0.45183  0.27495  0.0000
Ti9  Ti  1.0000  0.44256  0.55474  0.38264  0.0000
Ti10  Ti  1.0000  0.55829  0.45175  0.27590  0.0000
Ti11  Ti  1.0000  0.77911  0.55564  0.38364  0.0000
Ti12  Ti  1.0000  0.89066  0.45186  0.27590  0.0000
Ti13  Ti  1.0000  0.11083  0.88644  0.38337  0.0000
Ti14  Ti  1.0000  0.22444  0.78592  0.27497  0.0000
Ti15  Ti  1.0000  0.44255  0.88257  0.38260  0.0000
Ti16  Ti  1.0000  0.55848  0.78585  0.27494  0.0000
Ti17  Ti  1.0000  0.77804  0.88634  0.38337  0.0000
Ti18  Ti  1.0000  0.89119  0.78536  0.27513  0.0000
C1  C  1.0000  0.00118  0.00246  0.32983  0.0000
C2  C  1.0000  0.33463  0.00337  0.33012  0.0000
C3  C  1.0000  0.66856  0.00330  0.33012  0.0000
C4  C  1.0000  0.00033  0.33510  0.33012  0.0000
C5  C  1.0000  0.33467  0.33508  0.33011  0.0000
C6  C  1.0000  0.66784  0.33580  0.33018  0.0000
C7  C  1.0000  0.00030  0.66901  0.33013  0.0000
C8  C  1.0000  0.33453  0.66921  0.32882  0.0000
C9  C  1.0000  0.66853  0.66901  0.33012  0.0000
S1  S  1.0000  0.22074  0.10193  0.45319  0.0000
S2  S  1.0000  0.11486  0.23631  0.20609  0.0000
S3  S  1.0000  0.54406  0.08119  0.45739  0.0000
S4  S  1.0000  0.44892  0.23680  0.20657  0.0000
S5  S  1.0000  0.88723  0.10177  0.45318  0.0000
S6  S  1.0000  0.78182  0.23667  0.20663  0.0000
S7  S  1.0000  0.22044  0.43468  0.45287  0.0000
S8  S  1.0000  0.11454  0.56986  0.20642  0.0000
S9  S  1.0000  0.54388  0.44462  0.45746  0.0000
S10  S  1.0000  0.44901  0.56969  0.20640  0.0000
S11  S  1.0000  0.90738  0.44470  0.45741  0.0000
S12  S  1.0000  0.78170  0.56969  0.20658  0.0000
S13  S  1.0000  0.22059  0.76850  0.45284  0.0000
S14  S  1.0000  0.11500  0.90355  0.20602  0.0000
S15  S  1.0000  0.55394  0.76831  0.45289  0.0000
S16  S  1.0000  0.44888  0.90414  0.20641  0.0000
S17  S  1.0000  0.88708  0.76827  0.45319  0.0000
S18  S  1.0000  0.78238  0.90365  0.20604  0.0000
Co1  Co  1.0000  0.66470  0.32169  0.47585  0.0000
