data_ZrCONb
_audit_creation_method           'pos2cif.pl'
_cell_length_a               9.89683323356517
_cell_length_b               9.89752791872858
_cell_length_c               23.2572422505274
_cell_angle_alpha            87.9922165921535
_cell_angle_beta             92.9569785721863
_cell_angle_gamma            120.016255986419
_symmetry_space_group_H-M        'P1'
_symmetry_Int_Tables_number      '1'
_symmetry_cell_setting           'triclinic'
loop_
_symmetry_equiv_pos_as_xyz
x,y,z

loop_
_atom_site_label
_atom_site_type_symbol
_atom_site_occupancy
_atom_site_fract_x
_atom_site_fract_y
_atom_site_fract_z
_atom_site_U_iso_or_equiv
Zr1  Zr  1.0000  0.12067  0.27125  0.59886  0.0000
Zr2  Zr  1.0000  0.31713  0.05593  0.36067  0.0000
Zr3  Zr  1.0000  0.21811  0.16364  0.47868  0.0000
Zr4  Zr  1.0000  0.44643  0.26852  0.59143  0.0000
Zr5  Zr  1.0000  0.65084  0.05590  0.36069  0.0000
Zr6  Zr  1.0000  0.55200  0.16323  0.47843  0.0000
Zr7  Zr  1.0000  0.79013  0.26845  0.59151  0.0000
Zr8  Zr  1.0000  0.98418  0.05633  0.36041  0.0000
Zr9  Zr  1.0000  0.88634  0.16366  0.47872  0.0000
Zr10  Zr  1.0000  0.12323  0.60623  0.59831  0.0000
Zr11  Zr  1.0000  0.31713  0.38972  0.36065  0.0000
Zr12  Zr  1.0000  0.21941  0.49773  0.47989  0.0000
Zr13  Zr  1.0000  0.45301  0.60634  0.59833  0.0000
Zr14  Zr  1.0000  0.65081  0.38963  0.35989  0.0000
Zr15  Zr  1.0000  0.55207  0.49794  0.47845  0.0000
Zr16  Zr  1.0000  0.79028  0.61221  0.59151  0.0000
Zr17  Zr  1.0000  0.98461  0.38969  0.36067  0.0000
Zr18  Zr  1.0000  0.88667  0.49789  0.47847  0.0000
Zr19  Zr  1.0000  0.12077  0.93864  0.59892  0.0000
Zr20  Zr  1.0000  0.31767  0.72305  0.36145  0.0000
Zr21  Zr  1.0000  0.21941  0.83076  0.47990  0.0000
Zr22  Zr  1.0000  0.45296  0.93594  0.59830  0.0000
Zr23  Zr  1.0000  0.65082  0.72339  0.36068  0.0000
Zr24  Zr  1.0000  0.55249  0.83075  0.47989  0.0000
Zr25  Zr  1.0000  0.78799  0.93856  0.59889  0.0000
Zr26  Zr  1.0000  0.98468  0.72336  0.36069  0.0000
Zr27  Zr  1.0000  0.88646  0.83183  0.47874  0.0000
C1  C  1.0000  0.10187  0.27688  0.42082  0.0000
C2  C  1.0000  0.00332  0.05127  0.53876  0.0000
C3  C  1.0000  0.43438  0.27649  0.42056  0.0000
C4  C  1.0000  0.33692  0.05023  0.53869  0.0000
C5  C  1.0000  0.76894  0.27651  0.42057  0.0000
C6  C  1.0000  0.66869  0.05030  0.53871  0.0000
C7  C  1.0000  0.10253  0.61054  0.42097  0.0000
C8  C  1.0000  0.00429  0.38596  0.53872  0.0000
C9  C  1.0000  0.43493  0.61052  0.42098  0.0000
C10  C  1.0000  0.33696  0.38596  0.53870  0.0000
C11  C  1.0000  0.76898  0.61103  0.42058  0.0000
C12  C  1.0000  0.66981  0.38467  0.53710  0.0000
C13  C  1.0000  0.10190  0.94357  0.42082  0.0000
C14  C  1.0000  0.00439  0.71766  0.53873  0.0000
C15  C  1.0000  0.43495  0.94298  0.42097  0.0000
C16  C  1.0000  0.33691  0.71795  0.54078  0.0000
C17  C  1.0000  0.76859  0.94357  0.42083  0.0000
C18  C  1.0000  0.66875  0.71769  0.53874  0.0000
O1  O  1.0000  0.23828  0.16056  0.63897  0.0000
O2  O  1.0000  0.20208  0.16856  0.32022  0.0000
O3  O  1.0000  0.57413  0.16588  0.65038  0.0000
O4  O  1.0000  0.53573  0.16885  0.32044  0.0000
O5  O  1.0000  0.90200  0.16057  0.63897  0.0000
O6  O  1.0000  0.86896  0.16855  0.32023  0.0000
O7  O  1.0000  0.23617  0.49244  0.63992  0.0000
O8  O  1.0000  0.20216  0.50168  0.32057  0.0000
O9  O  1.0000  0.57414  0.48910  0.65041  0.0000
O10  O  1.0000  0.53572  0.50186  0.32044  0.0000
O11  O  1.0000  0.89742  0.48915  0.65046  0.0000
O12  O  1.0000  0.86871  0.50183  0.32044  0.0000
O13  O  1.0000  0.23619  0.82644  0.63995  0.0000
O14  O  1.0000  0.20216  0.83548  0.32057  0.0000
O15  O  1.0000  0.57018  0.82644  0.63995  0.0000
O16  O  1.0000  0.53595  0.83546  0.32056  0.0000
O17  O  1.0000  0.90206  0.82426  0.63900  0.0000
O18  O  1.0000  0.86895  0.83540  0.32022  0.0000
Nb1  Nb  1.0000  0.68540  0.38035  0.68389  0.0000
