data_HfCOCu
_audit_creation_method           'pos2cif.pl'
_cell_length_a               9.7236993843746
_cell_length_b               9.72355341417111
_cell_length_c               21.5010159286661
_cell_angle_alpha            87.7854896732988
_cell_angle_beta             90.6844218514481
_cell_angle_gamma            120.01086979626
_symmetry_space_group_H-M        'P1'
_symmetry_Int_Tables_number      '1'
_symmetry_cell_setting           'triclinic'
loop_
_symmetry_equiv_pos_as_xyz
x,y,z

loop_
_atom_site_label
_atom_site_type_symbol
_atom_site_occupancy
_atom_site_fract_x
_atom_site_fract_y
_atom_site_fract_z
_atom_site_U_iso_or_equiv
Hf1  Hf  1.0000  0.11080  0.21827  0.39381  0.0000
Hf2  Hf  1.0000  0.22403  0.11944  0.26508  0.0000
Hf3  Hf  1.0000  0.44061  0.21708  0.39000  0.0000
Hf4  Hf  1.0000  0.55807  0.11963  0.26475  0.0000
Hf5  Hf  1.0000  0.77961  0.21709  0.39003  0.0000
Hf6  Hf  1.0000  0.89194  0.11946  0.26511  0.0000
Hf7  Hf  1.0000  0.11147  0.55215  0.39403  0.0000
Hf8  Hf  1.0000  0.22500  0.45345  0.26596  0.0000
Hf9  Hf  1.0000  0.44401  0.55212  0.39402  0.0000
Hf10  Hf  1.0000  0.55809  0.45338  0.26473  0.0000
Hf11  Hf  1.0000  0.77961  0.55606  0.39003  0.0000
Hf12  Hf  1.0000  0.89180  0.45340  0.26473  0.0000
Hf13  Hf  1.0000  0.11084  0.88540  0.39384  0.0000
Hf14  Hf  1.0000  0.22499  0.78623  0.26598  0.0000
Hf15  Hf  1.0000  0.44403  0.88469  0.39402  0.0000
Hf16  Hf  1.0000  0.55776  0.78624  0.26599  0.0000
Hf17  Hf  1.0000  0.77787  0.88535  0.39384  0.0000
Hf18  Hf  1.0000  0.89194  0.78740  0.26510  0.0000
C1  C  1.0000  0.00123  0.00251  0.32938  0.0000
C2  C  1.0000  0.33508  0.00263  0.32977  0.0000
C3  C  1.0000  0.66747  0.00265  0.32978  0.0000
C4  C  1.0000  0.00107  0.33623  0.32974  0.0000
C5  C  1.0000  0.33510  0.33620  0.32973  0.0000
C6  C  1.0000  0.66794  0.33597  0.32889  0.0000
C7  C  1.0000  0.00107  0.66865  0.32978  0.0000
C8  C  1.0000  0.33450  0.66898  0.33092  0.0000
C9  C  1.0000  0.66751  0.66863  0.32979  0.0000
O1  O  1.0000  0.22160  0.10356  0.43770  0.0000
O2  O  1.0000  0.11511  0.23600  0.22148  0.0000
O3  O  1.0000  0.55543  0.10511  0.44203  0.0000
O4  O  1.0000  0.44774  0.23509  0.22083  0.0000
O5  O  1.0000  0.88754  0.10350  0.43770  0.0000
O6  O  1.0000  0.78155  0.23502  0.22086  0.0000
O7  O  1.0000  0.22079  0.43602  0.43827  0.0000
O8  O  1.0000  0.11549  0.56890  0.22159  0.0000
O9  O  1.0000  0.55535  0.43490  0.44207  0.0000
O10  O  1.0000  0.44765  0.56892  0.22161  0.0000
O11  O  1.0000  0.88534  0.43495  0.44206  0.0000
O12  O  1.0000  0.78159  0.56900  0.22084  0.0000
O13  O  1.0000  0.22090  0.77004  0.43832  0.0000
O14  O  1.0000  0.11513  0.90125  0.22148  0.0000
O15  O  1.0000  0.55482  0.76998  0.43831  0.0000
O16  O  1.0000  0.44760  0.90096  0.22161  0.0000
O17  O  1.0000  0.88757  0.76948  0.43773  0.0000
O18  O  1.0000  0.78037  0.90138  0.22154  0.0000
Cu1  Cu  1.0000  0.66424  0.32084  0.48502  0.0000
