data_HfCSNb
_audit_creation_method           'pos2cif.pl'
_cell_length_a               10.0773470479056
_cell_length_b               10.0763547653647
_cell_length_c               23.4568884542101
_cell_angle_alpha            87.8281646686267
_cell_angle_beta             93.1571126512191
_cell_angle_gamma            120.047174810989
_symmetry_space_group_H-M        'P1'
_symmetry_Int_Tables_number      '1'
_symmetry_cell_setting           'triclinic'
loop_
_symmetry_equiv_pos_as_xyz
x,y,z

loop_
_atom_site_label
_atom_site_type_symbol
_atom_site_occupancy
_atom_site_fract_x
_atom_site_fract_y
_atom_site_fract_z
_atom_site_U_iso_or_equiv
Hf1  Hf  1.0000  0.12045  0.27089  0.61240  0.0000
Hf2  Hf  1.0000  0.31768  0.05676  0.38779  0.0000
Hf3  Hf  1.0000  0.21862  0.16379  0.49988  0.0000
Hf4  Hf  1.0000  0.44969  0.26959  0.60976  0.0000
Hf5  Hf  1.0000  0.65114  0.05677  0.38779  0.0000
Hf6  Hf  1.0000  0.55243  0.16387  0.49971  0.0000
Hf7  Hf  1.0000  0.78915  0.26952  0.60978  0.0000
Hf8  Hf  1.0000  0.98435  0.05669  0.38762  0.0000
Hf9  Hf  1.0000  0.88618  0.16379  0.49988  0.0000
Hf10  Hf  1.0000  0.12610  0.60771  0.60986  0.0000
Hf11  Hf  1.0000  0.31767  0.38994  0.38777  0.0000
Hf12  Hf  1.0000  0.21870  0.49650  0.49943  0.0000
Hf13  Hf  1.0000  0.45091  0.60775  0.60981  0.0000
Hf14  Hf  1.0000  0.65105  0.39004  0.38782  0.0000
Hf15  Hf  1.0000  0.55244  0.49752  0.49969  0.0000
Hf16  Hf  1.0000  0.78909  0.60902  0.60975  0.0000
Hf17  Hf  1.0000  0.98431  0.38993  0.38780  0.0000
Hf18  Hf  1.0000  0.88610  0.49752  0.49972  0.0000
Hf19  Hf  1.0000  0.12042  0.93850  0.61241  0.0000
Hf20  Hf  1.0000  0.31772  0.72337  0.38784  0.0000
Hf21  Hf  1.0000  0.21869  0.83121  0.49945  0.0000
Hf22  Hf  1.0000  0.45093  0.93259  0.60982  0.0000
Hf23  Hf  1.0000  0.65112  0.72340  0.38777  0.0000
Hf24  Hf  1.0000  0.55342  0.83121  0.49943  0.0000
Hf25  Hf  1.0000  0.78795  0.93846  0.61239  0.0000
Hf26  Hf  1.0000  0.98433  0.72340  0.38779  0.0000
Hf27  Hf  1.0000  0.88618  0.83134  0.49988  0.0000
C1  C  1.0000  0.10172  0.27686  0.44350  0.0000
C2  C  1.0000  0.00354  0.05103  0.55800  0.0000
C3  C  1.0000  0.43536  0.27718  0.44358  0.0000
C4  C  1.0000  0.33743  0.05218  0.55804  0.0000
C5  C  1.0000  0.76840  0.27714  0.44359  0.0000
C6  C  1.0000  0.67075  0.05220  0.55804  0.0000
C7  C  1.0000  0.10134  0.61018  0.44352  0.0000
C8  C  1.0000  0.00239  0.38380  0.55807  0.0000
C9  C  1.0000  0.43532  0.61021  0.44351  0.0000
C10  C  1.0000  0.33743  0.38383  0.55804  0.0000
C11  C  1.0000  0.76836  0.61016  0.44359  0.0000
C12  C  1.0000  0.67031  0.38435  0.55914  0.0000
C13  C  1.0000  0.10169  0.94381  0.44350  0.0000
C14  C  1.0000  0.00243  0.71713  0.55807  0.0000
C15  C  1.0000  0.43534  0.94418  0.44352  0.0000
C16  C  1.0000  0.33670  0.71775  0.55678  0.0000
C17  C  1.0000  0.76866  0.94379  0.44350  0.0000
C18  C  1.0000  0.67074  0.71718  0.55803  0.0000
S1  S  1.0000  0.24217  0.15956  0.68107  0.0000
S2  S  1.0000  0.19903  0.17018  0.32002  0.0000
S3  S  1.0000  0.56498  0.14136  0.68551  0.0000
S4  S  1.0000  0.53231  0.17024  0.31990  0.0000
S5  S  1.0000  0.90484  0.15943  0.68105  0.0000
S6  S  1.0000  0.86552  0.17018  0.32003  0.0000
S7  S  1.0000  0.24051  0.49356  0.68048  0.0000
S8  S  1.0000  0.19893  0.50343  0.32014  0.0000
S9  S  1.0000  0.56514  0.49973  0.68548  0.0000
S10  S  1.0000  0.53231  0.50327  0.31987  0.0000
S11  S  1.0000  0.92319  0.49976  0.68549  0.0000
S12  S  1.0000  0.86539  0.50331  0.31990  0.0000
S13  S  1.0000  0.24044  0.82383  0.68047  0.0000
S14  S  1.0000  0.19891  0.83684  0.32014  0.0000
S15  S  1.0000  0.57043  0.82370  0.68044  0.0000
S16  S  1.0000  0.53231  0.83680  0.32013  0.0000
S17  S  1.0000  0.90476  0.82239  0.68103  0.0000
S18  S  1.0000  0.86546  0.83654  0.32002  0.0000
Nb1  Nb  1.0000  0.68852  0.37905  0.72338  0.0000
