data_TiCOZr
_audit_creation_method           'pos2cif.pl'
_cell_length_a               9.08497519442018
_cell_length_b               9.08505158157134
_cell_length_c               24.4629356392679
_cell_angle_alpha            88.826893259835
_cell_angle_beta             91.588260515145
_cell_angle_gamma            120.006769446996
_symmetry_space_group_H-M        'P1'
_symmetry_Int_Tables_number      '1'
_symmetry_cell_setting           'triclinic'
loop_
_symmetry_equiv_pos_as_xyz
x,y,z

loop_
_atom_site_label
_atom_site_type_symbol
_atom_site_occupancy
_atom_site_fract_x
_atom_site_fract_y
_atom_site_fract_z
_atom_site_U_iso_or_equiv
Ti1  Ti  1.0000  0.11850  0.26204  0.49676  0.0000
Ti2  Ti  1.0000  0.32838  0.04606  0.28989  0.0000
Ti3  Ti  1.0000  0.22223  0.15418  0.39140  0.0000
Ti4  Ti  1.0000  0.09960  0.27069  0.18548  0.0000
Ti5  Ti  1.0000  0.44055  0.25800  0.48950  0.0000
Ti6  Ti  1.0000  0.66155  0.04608  0.28989  0.0000
Ti7  Ti  1.0000  0.55658  0.15407  0.39147  0.0000
Ti8  Ti  1.0000  0.43297  0.27082  0.18530  0.0000
Ti9  Ti  1.0000  0.79123  0.25790  0.48955  0.0000
Ti10  Ti  1.0000  0.99506  0.04626  0.28988  0.0000
Ti11  Ti  1.0000  0.89102  0.15416  0.39141  0.0000
Ti12  Ti  1.0000  0.76633  0.27080  0.18530  0.0000
Ti13  Ti  1.0000  0.12685  0.60078  0.49600  0.0000
Ti14  Ti  1.0000  0.32837  0.37975  0.28989  0.0000
Ti15  Ti  1.0000  0.22365  0.48811  0.39212  0.0000
Ti16  Ti  1.0000  0.09951  0.60410  0.18530  0.0000
Ti17  Ti  1.0000  0.44876  0.60075  0.49599  0.0000
Ti18  Ti  1.0000  0.66170  0.37959  0.28972  0.0000
Ti19  Ti  1.0000  0.55659  0.48862  0.39145  0.0000
Ti20  Ti  1.0000  0.43304  0.60409  0.18530  0.0000
Ti21  Ti  1.0000  0.79126  0.60865  0.48948  0.0000
Ti22  Ti  1.0000  0.99523  0.37975  0.28989  0.0000
Ti23  Ti  1.0000  0.89111  0.48860  0.39146  0.0000
Ti24  Ti  1.0000  0.76633  0.60417  0.18530  0.0000
Ti25  Ti  1.0000  0.11849  0.93111  0.49673  0.0000
Ti26  Ti  1.0000  0.32840  0.71291  0.29006  0.0000
Ti27  Ti  1.0000  0.22365  0.82153  0.39211  0.0000
Ti28  Ti  1.0000  0.09960  0.93755  0.18548  0.0000
Ti29  Ti  1.0000  0.44871  0.92258  0.49597  0.0000
Ti30  Ti  1.0000  0.66154  0.71293  0.28988  0.0000
Ti31  Ti  1.0000  0.55706  0.82152  0.39210  0.0000
Ti32  Ti  1.0000  0.43306  0.93764  0.18530  0.0000
Ti33  Ti  1.0000  0.78753  0.93099  0.49675  0.0000
Ti34  Ti  1.0000  0.99524  0.71292  0.28989  0.0000
Ti35  Ti  1.0000  0.89104  0.82299  0.39138  0.0000
Ti36  Ti  1.0000  0.76644  0.93755  0.18547  0.0000
C1  C  1.0000  0.10959  0.26751  0.34129  0.0000
C2  C  1.0000  0.00479  0.04255  0.44419  0.0000
C3  C  1.0000  0.21394  0.15846  0.23871  0.0000
C4  C  1.0000  0.44265  0.26715  0.34088  0.0000
C5  C  1.0000  0.33818  0.04223  0.44426  0.0000
C6  C  1.0000  0.54741  0.15850  0.23853  0.0000
C7  C  1.0000  0.77610  0.26712  0.34089  0.0000
C8  C  1.0000  0.67103  0.04222  0.44426  0.0000
C9  C  1.0000  0.88084  0.15846  0.23871  0.0000
C10  C  1.0000  0.10974  0.60066  0.34136  0.0000
C11  C  1.0000  0.00513  0.37628  0.44427  0.0000
C12  C  1.0000  0.21405  0.49177  0.23880  0.0000
C13  C  1.0000  0.44260  0.60068  0.34135  0.0000
C14  C  1.0000  0.33813  0.37630  0.44426  0.0000
C15  C  1.0000  0.54741  0.49186  0.23853  0.0000
C16  C  1.0000  0.77609  0.60058  0.34088  0.0000
C17  C  1.0000  0.67145  0.37589  0.44452  0.0000
C18  C  1.0000  0.88077  0.49186  0.23853  0.0000
C19  C  1.0000  0.10959  0.93369  0.34128  0.0000
C20  C  1.0000  0.00518  0.70918  0.44424  0.0000
C21  C  1.0000  0.21404  0.82522  0.23880  0.0000
C22  C  1.0000  0.44261  0.93355  0.34135  0.0000
C23  C  1.0000  0.33821  0.70922  0.44532  0.0000
C24  C  1.0000  0.54750  0.82521  0.23880  0.0000
C25  C  1.0000  0.77577  0.93369  0.34128  0.0000
C26  C  1.0000  0.67103  0.70917  0.44424  0.0000
C27  C  1.0000  0.88084  0.82535  0.23871  0.0000
O1  O  1.0000  0.23515  0.15275  0.53584  0.0000
O2  O  1.0000  0.31937  0.04939  0.14753  0.0000
O3  O  1.0000  0.57059  0.15892  0.54661  0.0000
O4  O  1.0000  0.65276  0.04939  0.14753  0.0000
O5  O  1.0000  0.89834  0.15271  0.53583  0.0000
O6  O  1.0000  0.98609  0.04947  0.14764  0.0000
O7  O  1.0000  0.23350  0.48617  0.53618  0.0000
O8  O  1.0000  0.31937  0.38280  0.14753  0.0000
O9  O  1.0000  0.57040  0.48112  0.54652  0.0000
O10  O  1.0000  0.65277  0.38281  0.14745  0.0000
O11  O  1.0000  0.89276  0.48106  0.54656  0.0000
O12  O  1.0000  0.98617  0.38280  0.14752  0.0000
O13  O  1.0000  0.23352  0.81768  0.53617  0.0000
O14  O  1.0000  0.31943  0.71612  0.14753  0.0000
O15  O  1.0000  0.56502  0.81768  0.53617  0.0000
O16  O  1.0000  0.65276  0.71620  0.14753  0.0000
O17  O  1.0000  0.89823  0.81582  0.53582  0.0000
O18  O  1.0000  0.98616  0.71619  0.14752  0.0000
Zr1  Zr  1.0000  0.68032  0.37291  0.58505  0.0000
