data_ZrCSAu
_audit_creation_method           'pos2cif.pl'
_cell_length_a               10.1982937453055
_cell_length_b               10.2001736150813
_cell_length_c               21.904154839233
_cell_angle_alpha            87.7378082291198
_cell_angle_beta             93.2870546857746
_cell_angle_gamma            120.001351912574
_symmetry_space_group_H-M        'P1'
_symmetry_Int_Tables_number      '1'
_symmetry_cell_setting           'triclinic'
loop_
_symmetry_equiv_pos_as_xyz
x,y,z

loop_
_atom_site_label
_atom_site_type_symbol
_atom_site_occupancy
_atom_site_fract_x
_atom_site_fract_y
_atom_site_fract_z
_atom_site_U_iso_or_equiv
Zr1  Zr  1.0000  0.12129  0.27137  0.60127  0.0000
Zr2  Zr  1.0000  0.31719  0.05701  0.35688  0.0000
Zr3  Zr  1.0000  0.21924  0.16404  0.47923  0.0000
Zr4  Zr  1.0000  0.45246  0.27043  0.60180  0.0000
Zr5  Zr  1.0000  0.65053  0.05699  0.35687  0.0000
Zr6  Zr  1.0000  0.55269  0.16425  0.47944  0.0000
Zr7  Zr  1.0000  0.78943  0.27030  0.60188  0.0000
Zr8  Zr  1.0000  0.98369  0.05671  0.35675  0.0000
Zr9  Zr  1.0000  0.88579  0.16405  0.47924  0.0000
Zr10  Zr  1.0000  0.12447  0.60660  0.59901  0.0000
Zr11  Zr  1.0000  0.31719  0.38984  0.35688  0.0000
Zr12  Zr  1.0000  0.21855  0.49643  0.47825  0.0000
Zr13  Zr  1.0000  0.45273  0.60649  0.59895  0.0000
Zr14  Zr  1.0000  0.65036  0.38998  0.35743  0.0000
Zr15  Zr  1.0000  0.55270  0.49735  0.47940  0.0000
Zr16  Zr  1.0000  0.78953  0.60752  0.60182  0.0000
Zr17  Zr  1.0000  0.98334  0.38986  0.35686  0.0000
Zr18  Zr  1.0000  0.88581  0.49734  0.47943  0.0000
Zr19  Zr  1.0000  0.12134  0.93838  0.60122  0.0000
Zr20  Zr  1.0000  0.31700  0.72337  0.35662  0.0000
Zr21  Zr  1.0000  0.21854  0.83116  0.47825  0.0000
Zr22  Zr  1.0000  0.45273  0.93471  0.59893  0.0000
Zr23  Zr  1.0000  0.65056  0.72322  0.35686  0.0000
Zr24  Zr  1.0000  0.55326  0.83111  0.47826  0.0000
Zr25  Zr  1.0000  0.78824  0.93828  0.60122  0.0000
Zr26  Zr  1.0000  0.98334  0.72322  0.35686  0.0000
Zr27  Zr  1.0000  0.88578  0.83060  0.47920  0.0000
C1  C  1.0000  0.10146  0.27728  0.41754  0.0000
C2  C  1.0000  0.00372  0.05110  0.54122  0.0000
C3  C  1.0000  0.43534  0.27738  0.41768  0.0000
C4  C  1.0000  0.33785  0.05327  0.54161  0.0000
C5  C  1.0000  0.76768  0.27734  0.41769  0.0000
C6  C  1.0000  0.67178  0.05318  0.54160  0.0000
C7  C  1.0000  0.10109  0.61024  0.41765  0.0000
C8  C  1.0000  0.00167  0.38307  0.54164  0.0000
C9  C  1.0000  0.43476  0.61025  0.41765  0.0000
C10  C  1.0000  0.33784  0.38309  0.54162  0.0000
C11  C  1.0000  0.76765  0.60968  0.41767  0.0000
C12  C  1.0000  0.67076  0.38440  0.54415  0.0000
C13  C  1.0000  0.10142  0.94356  0.41755  0.0000
C14  C  1.0000  0.00168  0.71706  0.54160  0.0000
C15  C  1.0000  0.43475  0.94387  0.41765  0.0000
C16  C  1.0000  0.33695  0.71776  0.54051  0.0000
C17  C  1.0000  0.76774  0.94355  0.41753  0.0000
C18  C  1.0000  0.67177  0.71701  0.54159  0.0000
S1  S  1.0000  0.24094  0.15840  0.67515  0.0000
S2  S  1.0000  0.19790  0.16996  0.28386  0.0000
S3  S  1.0000  0.56110  0.13138  0.67913  0.0000
S4  S  1.0000  0.53131  0.17005  0.28384  0.0000
S5  S  1.0000  0.90698  0.15825  0.67516  0.0000
S6  S  1.0000  0.86460  0.16997  0.28386  0.0000
S7  S  1.0000  0.24056  0.49208  0.67336  0.0000
S8  S  1.0000  0.19787  0.50320  0.28384  0.0000
S9  S  1.0000  0.56133  0.50524  0.67916  0.0000
S10  S  1.0000  0.53130  0.50330  0.28383  0.0000
S11  S  1.0000  0.93429  0.50496  0.67922  0.0000
S12  S  1.0000  0.86453  0.50330  0.28384  0.0000
S13  S  1.0000  0.24051  0.82485  0.67334  0.0000
S14  S  1.0000  0.19784  0.83674  0.28383  0.0000
S15  S  1.0000  0.57311  0.82471  0.67331  0.0000
S16  S  1.0000  0.53137  0.83669  0.28384  0.0000
S17  S  1.0000  0.90705  0.82459  0.67516  0.0000
S18  S  1.0000  0.86462  0.83670  0.28385  0.0000
Au1  Au  1.0000  0.68895  0.37912  0.71407  0.0000
